20180601/PYTHON/IEEE13_nominalload_vec.dss
Clear 
Set DefaultBaseFrequency=60

new circuit.IEEE13Nodeckt 
~ basekv=4.16 pu=1.0001 phases=3 bus1=SourceBus  
~ Angle=0.0 ! advance angle 30 deg so result agree with published angle
~ MVAsc3=20000 MVASC1=21000 ! stiffen the source to approximate inf source
~ baseMVA=1

!LINE CODES
redirect IEEELineCodes.dss

// these are local matrix line codes
// corrected 9-14-2011
New linecode.mtx601 nphases=3 BaseFreq=60 
~ rmatrix = (0.3465 | 0.1560 0.3375 | 0.1580 0.1535 0.3414 ) 
~ xmatrix = (1.0179 | 0.5017 1.0478 | 0.4236 0.3849 1.0348 ) 
~ units=mi 
New linecode.mtx602 nphases=3 BaseFreq=60 
~ rmatrix = (0.7526 | 0.1580 0.7475 | 0.1560 0.1535 0.7436 ) 
~ xmatrix = (1.1814 | 0.4236 1.1983 | 0.5017 0.3849 1.2112 ) 
~ units=mi 
New linecode.mtx603 nphases=2 BaseFreq=60 
~ rmatrix = (1.3238 | 0.2066 1.3294 ) 
~ xmatrix = (1.3569 | 0.4591 1.3471 ) 
~ units=mi 
New linecode.mtx604 nphases=2 BaseFreq=60 
~ rmatrix = (1.3238 | 0.2066 1.3294 ) 
~ xmatrix = (1.3569 | 0.4591 1.3471 ) 
~ units=mi 
New linecode.mtx605 nphases=1 BaseFreq=60 
~ rmatrix = (1.3292 ) 
~ xmatrix = (1.3475 ) 
~ units=mi 
New Linecode.mtx606 nphases=3 BaseFreq=60
~ rmatrix=[0.791721  |0.318476  0.781649  |0.28345  0.318476  0.791721  ]
~ xmatrix=[0.438352  |0.0276838  0.396697  |-0.0184204  0.0276838  0.438352  ]
!~ cmatrix=[383.948  |0  383.948  |0  0  383.948  ]
~ units=mi
New linecode.mtx607 nphases=1 BaseFreq=60 
~ rmatrix = (1.3425 ) 
~ xmatrix = (0.5124 )
!~ cmatrix = [236] 
~ units=mi 


!LOAD DEFINITIONS 
New Load.671a Bus1=671.1 Phases=1 Conn=Wye Model=1 kV=2.40177711983    kW=354.00688432890405 kvar=202.28014886673782
New Load.671b Bus1=671.2 Phases=1 Conn=Wye Model=1 kV=2.40177711983     kW=385.0059648914427 kvar=220.0153451796125
New Load.671c Bus1=671.3 Phases=1 Conn=Wye Model=1 kV=2.40177711983     kW=329.3479578196931 kvar=188.19849899309895
New Load.634a Bus1=634.1     Phases=1 Conn=Wye  Model=1 kV=2.40177711983  kW=158.3372475799021  kvar=108.85394417016919
New Load.634b Bus1=634.2     Phases=1 Conn=Wye  Model=1 kV=2.40177711983  kW=120.00103272920956   kvar=90.0035171394831 
New Load.634c Bus1=634.3     Phases=1 Conn=Wye  Model=1 kV=2.40177711983  kW=114.68155967618338  kvar=86.01122401501591
New Load.645 Bus1=645.2       Phases=1 Conn=Wye  Model=1 kV=2.40177711983      kW=170.00164030462003   kvar=125.00500536972704 
New Load.646b Bus1=646.2    Phases=1 Conn=Wye Model=1 kV=2.40177711983 kW=115.00142608425548   kvar=66.00305598897836
New Load.646c Bus1=646.3    Phases=1 Conn=Wye Model=1 kV=2.40177711983 kW=110.40006322872118   kvar=63.36009408315913
New Load.692c Bus1=692.3    Phases=1 Conn=Wye Model=1 kV=2.40177711983   kW=71.98575201639282   kvar=63.940205554188495
New Load.692a Bus1=692.1    Phases=1 Conn=Wye Model=1 kV=2.40177711983   kW=76.5197897438606   kvar=67.96475132213061
New Load.675a Bus1=675.1    Phases=1 Conn=Wye  Model=1 kV=2.40177711983  kW=429.1414541291796   kvar=168.10686964148547
New Load.675b Bus1=675.2    Phases=1 Conn=Wye  Model=1 kV=2.40177711983  kW=68.00062853399703   kvar=60.00336062487251
New Load.675c Bus1=675.3    Phases=1 Conn=Wye  Model=1 kV=2.40177711983  kW=243.763754922406   kvar=178.19953526345745
New Load.611 Bus1=611.3      Phases=1 Conn=Wye  Model=1 kV=2.40177711983  kW=143.22864891384376  kvar=67.40153088215484
New Load.652 Bus1=652.1      Phases=1 Conn=Wye  Model=1 kV=2.40177711983  kW=115.63059476035343  kvar=77.68588140979803 
New Load.670a Bus1=670.1    Phases=1 Conn=Wye  Model=1 kV=2.40177711983  kW=16.583173171777666   kvar=9.754477197907226 
New Load.670b Bus1=670.2    Phases=1 Conn=Wye  Model=1 kV=2.40177711983  kW=66.00079281814715    kvar=38.001985783281576
New Load.670c Bus1=670.3    Phases=1 Conn=Wye  Model=1 kV=2.40177711983  kW=108.40126084434256  kvar=63.002427481130596

!CAPACITOR DEFINITIONS
New Capacitor.Cap1 Bus1=675.1.2.3 phases=3 kVAR=600 kV=4.16 
New Capacitor.Cap2 Bus1=611.3 phases=1 kVAR=100 kV=2.40177711983

!LINE DEFINITIONS
New Line.sbs_650    Phases=3 Bus1=sourcebus.1.2.3   Bus2=650.1.2.3  LineCode=mtx601 Length=100 units=ft
New Line.650_632    Phases=3 Bus1=650.1.2.3   Bus2=632.1.2.3  LineCode=mtx601 Length=2000 units=ft
New Line.632_670    Phases=3 Bus1=632.1.2.3    Bus2=670.1.2.3  LineCode=mtx601 Length=667  units=ft
New Line.670_671    Phases=3 Bus1=670.1.2.3    Bus2=671.1.2.3  LineCode=mtx601 Length=1333 units=ft
New Line.671_680    Phases=3 Bus1=671.1.2.3    Bus2=680.1.2.3  LineCode=mtx601 Length=1000 units=ft
New Line.632_633    Phases=3 Bus1=632.1.2.3    Bus2=633.1.2.3  LineCode=mtx602 Length=500  units=ft
New Line.633_634    Phases=3 Bus1=633.1.2.3    Bus2=634.1.2.3  LineCode=mtx602 Length=500  units=ft
New Line.632_645    Phases=2 Bus1=632.3.2      Bus2=645.3.2    LineCode=mtx603 Length=500  units=ft
New Line.645_646    Phases=2 Bus1=645.3.2      Bus2=646.3.2    LineCode=mtx603 Length=300  units=ft
New Line.671_692    Phases=3 Bus1=671.1.2.3    Bus2=692.1.2.3  LineCode=mtx606 Length=500  units=ft
New Line.692_675    Phases=3 Bus1=692.1.2.3    Bus2=675.1.2.3  LineCode=mtx606 Length=500  units=ft
New Line.671_684    Phases=2 Bus1=671.1.3      Bus2=684.1.3    LineCode=mtx604 Length=300  units=ft
New Line.684_611    Phases=1 Bus1=684.3        Bus2=611.3      LineCode=mtx605 Length=300  units=ft
New Line.684_652    Phases=1 Bus1=684.1        Bus2=652.1      LineCode=mtx607 Length=800  units=ft


Set Voltagebases=[4.16]
calcv
Solve
BusCoords IEEE13Node_BusXY.csv

!---------------------------------------------------------------------------------------------------------------------------------------------------
!----------------Show some Results -----------------------------------------------------------------------------------------------------------------
!---------------------------------------------------------------------------------------------------------------------------------------------------


// Show Voltages LN Nodes
// Show Currents Elem
// Show Powers kVA Elem
// Show Losses
// Show Taps

!---------------------------------------------------------------------------------------------------------------------------------------------------
!---------------------------------------------------------------------------------------------------------------------------------------------------
! Alternate Solution Script
! To force the taps to be same as published results, set the transformer taps manually and disable the controls
!---------------------------------------------------------------------------------------------------------------------------------------------------
/*
Transformer.Reg1.Taps=[1.0 1.0625]
Transformer.Reg2.Taps=[1.0 1.0500]
Transformer.Reg3.Taps=[1.0 1.06875]
Set Controlmode=OFF

Solve
*/